test_networks/archived/ieee2552_1ph/Master.dss
Clear

New Circuit.ieee2552_1ph  

Edit "Vsource.source" bus1=1 pu=1.05 R0=0 X0=0.00000001 phases=1 basekv=4.1569 R1=0 X1=0.00000001

Redirect BranchData.dss

Redirect ../LoadShapeDefault.dss
Redirect ../LoadShapePVDefault.dss
Redirect Loads.dss     ! Balanced Loads
// Redirect  Capacitor.dss
Redirect PVSystem.dss
Redirect Storage.dss

Set VoltageBases = [7.2]
Set mode = Daily 
Set stepsize = 1h
Set number = 1

! Let DSS estimate the voltage bases
CalcVoltageBases     ! This also establishes the bus list

